

 ERROR DETECTED :


 -->	Cannot find input file "D:\Repositories\NREL_Stay\OpenFAST35\openfast\Spar_RAOS_13_coupled.gid\Spar_RAOS_13_coupled.flavia"
"Programfailed"
